<?xml version="1.0" encoding="UTF-8"?>

<!-- generated on 2023-02-07 16:26:04 by Eclipse SUMO netedit Version 1.15.0
<configuration xmlns:xsi="http://www.w3.org/2001/XMLSchema-instance" xsi:noNamespaceSchemaLocation="http://sumo.dlr.de/xsd/netconvertConfiguration.xsd">

    <input>
        <sumo-net-file value="G:\Mi unidad\Maestría\Mapabase.net.xml"/>
    </input>

    <output>
        <output-file value="G:\Mi unidad\Maestría\Mapabase.net.xml"/>
    </output>

    <processing>
        <geometry.min-radius.fix.railways value="false"/>
        <geometry.max-grade.fix value="false"/>
        <offset.disable-normalization value="true"/>
        <lefthand value="0"/>
    </processing>

    <junctions>
        <no-turnarounds value="true"/>
        <junctions.corner-detail value="5"/>
        <junctions.limit-turn-speed value="5.50"/>
        <rectangular-lane-cut value="0"/>
    </junctions>

    <pedestrian>
        <walkingareas value="0"/>
    </pedestrian>

</configuration>
-->

<net version="1.9" junctionCornerDetail="5" limitTurnSpeed="5.50" xmlns:xsi="http://www.w3.org/2001/XMLSchema-instance" xsi:noNamespaceSchemaLocation="http://sumo.dlr.de/xsd/net_file.xsd">

    <location netOffset="0.00,0.00" convBoundary="-82.83,-81.32,172.67,172.11" origBoundary="-10000000000.00,-10000000000.00,10000000000.00,10000000000.00" projParameter="!"/>

    <edge id=":J0_0" function="internal">
        <lane id=":J0_0_0" index="0" speed="8.08" length="14.23" shape="-18.23,76.80 -22.11,77.35 -24.91,78.98 -26.63,81.70 -27.26,85.51"/>
    </edge>
    <edge id=":J0_1" function="internal">
        <lane id=":J0_1_0" index="0" speed="9.25" length="19.37" shape="-18.23,76.80 -23.49,76.06 -27.25,73.81 -29.50,70.06 -30.25,64.81"/>
    </edge>
    <edge id=":J0_2" function="internal">
        <lane id=":J0_2_0" index="0" speed="3.65" length="4.67" shape="-18.23,76.80 -19.43,76.00 -19.84,75.20 -19.44,74.40 -18.24,73.60"/>
    </edge>
    <edge id=":J0_3" function="internal">
        <lane id=":J0_3_0" index="0" speed="8.00" length="14.20" shape="-27.05,64.81 -26.50,68.66 -24.85,71.41 -22.09,73.05 -18.24,73.60"/>
    </edge>
    <edge id=":J0_4" function="internal">
        <lane id=":J0_4_0" index="0" speed="13.89" length="20.70" shape="-27.05,64.81 -27.26,85.51"/>
    </edge>
    <edge id=":J0_5" function="internal">
        <lane id=":J0_5_0" index="0" speed="3.65" length="1.44" shape="-27.05,64.81 -27.85,66.01"/>
    </edge>
    <edge id=":J0_9" function="internal">
        <lane id=":J0_9_0" index="0" speed="3.65" length="3.23" shape="-27.85,66.01 -28.65,66.41 -29.45,66.01 -30.25,64.81"/>
    </edge>
    <edge id=":J0_6" function="internal">
        <lane id=":J0_6_0" index="0" speed="13.89" length="20.64" shape="-30.46,85.44 -30.25,64.81"/>
    </edge>
    <edge id=":J0_7" function="internal">
        <lane id=":J0_7_0" index="0" speed="9.33" length="4.65" shape="-30.46,85.44 -29.70,80.86"/>
    </edge>
    <edge id=":J0_8" function="internal">
        <lane id=":J0_8_0" index="0" speed="3.65" length="1.44" shape="-30.46,85.44 -29.63,84.26"/>
    </edge>
    <edge id=":J0_10" function="internal">
        <lane id=":J0_10_0" index="0" speed="9.33" length="14.66" shape="-29.70,80.86 -29.60,80.27 -27.28,76.57 -23.49,74.35 -18.24,73.60"/>
    </edge>
    <edge id=":J0_11" function="internal">
        <lane id=":J0_11_0" index="0" speed="3.65" length="3.23" shape="-29.63,84.26 -28.83,83.88 -28.03,84.29 -27.26,85.51"/>
    </edge>
    <edge id=":J1_0" function="internal">
        <lane id=":J1_0_0" index="0" speed="8.00" length="14.20" shape="123.98,85.27 123.43,81.42 121.78,78.67 119.02,77.03 115.17,76.48"/>
    </edge>
    <edge id=":J1_1" function="internal">
        <lane id=":J1_1_0" index="0" speed="13.89" length="20.64" shape="123.98,85.27 124.33,64.64"/>
    </edge>
    <edge id=":J1_2" function="internal">
        <lane id=":J1_2_0" index="0" speed="3.65" length="1.44" shape="123.98,85.27 124.78,84.07"/>
    </edge>
    <edge id=":J1_9" function="internal">
        <lane id=":J1_9_0" index="0" speed="3.65" length="3.23" shape="124.78,84.07 125.58,83.67 126.38,84.07 127.18,85.27"/>
    </edge>
    <edge id=":J1_3" function="internal">
        <lane id=":J1_3_0" index="0" speed="13.89" length="20.53" shape="127.53,64.75 127.18,85.27"/>
    </edge>
    <edge id=":J1_4" function="internal">
        <lane id=":J1_4_0" index="0" speed="9.37" length="4.43" shape="127.53,64.75 126.74,69.11"/>
    </edge>
    <edge id=":J1_5" function="internal">
        <lane id=":J1_5_0" index="0" speed="3.65" length="1.44" shape="127.53,64.75 126.69,65.92"/>
    </edge>
    <edge id=":J1_10" function="internal">
        <lane id=":J1_10_0" index="0" speed="9.37" length="14.85" shape="126.74,69.11 126.60,69.87 124.24,73.54 120.43,75.74 115.17,76.48"/>
    </edge>
    <edge id=":J1_11" function="internal">
        <lane id=":J1_11_0" index="0" speed="3.65" length="3.23" shape="126.69,65.92 125.87,66.29 125.09,65.87 124.33,64.64"/>
    </edge>
    <edge id=":J1_6" function="internal">
        <lane id=":J1_6_0" index="0" speed="8.12" length="14.25" shape="115.16,73.28 119.06,72.74 121.89,71.11 123.64,68.41 124.33,64.64"/>
    </edge>
    <edge id=":J1_7" function="internal">
        <lane id=":J1_7_0" index="0" speed="9.25" length="19.37" shape="115.16,73.28 120.42,74.02 124.18,76.27 126.43,80.02 127.18,85.27"/>
    </edge>
    <edge id=":J1_8" function="internal">
        <lane id=":J1_8_0" index="0" speed="3.65" length="4.67" shape="115.16,73.28 116.36,74.08 116.77,74.88 116.37,75.68 115.17,76.48"/>
    </edge>
    <edge id=":J10_0" function="internal">
        <lane id=":J10_0_0" index="0" allow="ship" speed="6.98" length="3.22" shape="113.42,172.16 112.66,172.73 112.08,173.03 111.42,173.16 110.48,173.18"/>
    </edge>
    <edge id=":J10_1" function="internal">
        <lane id=":J10_1_0" index="0" allow="ship" speed="4.38" length="1.07" shape="110.46,169.98 110.78,169.98 111.00,169.93 111.19,169.83 111.45,169.64"/>
    </edge>
    <edge id=":J11_0" function="internal">
        <lane id=":J11_0_0" index="0" allow="ship" speed="6.48" length="4.22" shape="170.06,125.49 169.92,126.56 169.57,127.53 169.01,128.39 168.22,129.14"/>
    </edge>
    <edge id=":J11_1" function="internal">
        <lane id=":J11_1_0" index="0" allow="ship" speed="4.12" length="1.41" shape="166.25,126.62 166.51,126.37 166.70,126.08 166.81,125.76 166.86,125.40"/>
    </edge>
    <edge id=":J12_0" function="internal">
        <lane id=":J12_0_0" index="0" allow="ship" speed="6.53" length="4.05" shape="172.72,-35.65 173.40,-34.87 173.88,-34.01 174.16,-33.06 174.23,-32.02"/>
    </edge>
    <edge id=":J12_1" function="internal">
        <lane id=":J12_1_0" index="0" allow="ship" speed="4.14" length="1.35" shape="171.03,-32.11 171.01,-32.45 170.92,-32.77 170.76,-33.06 170.53,-33.32"/>
    </edge>
    <edge id=":J13_0" function="internal">
        <lane id=":J13_0_0" index="0" allow="ship" speed="3.65" length="4.67" shape="120.58,-80.15 120.25,-81.56 120.50,-82.41 121.34,-82.72 122.76,-82.49"/>
    </edge>
    <edge id=":J14_0" function="internal">
        <lane id=":J14_0_0" index="0" allow="ship" speed="3.65" length="4.67" shape="-27.25,-80.97 -25.81,-81.09 -25.00,-80.72 -24.81,-79.84 -25.25,-78.47"/>
    </edge>
    <edge id=":J15_0" function="internal">
        <lane id=":J15_0_0" index="0" allow="ship" speed="6.40" length="4.52" shape="-84.36,-33.03 -84.29,-34.19 -83.96,-35.24 -83.38,-36.17 -82.55,-36.99"/>
    </edge>
    <edge id=":J15_1" function="internal">
        <lane id=":J15_1_0" index="0" allow="ship" speed="4.07" length="1.51" shape="-80.56,-34.48 -80.84,-34.21 -81.03,-33.90 -81.14,-33.55 -81.16,-33.16"/>
    </edge>
    <edge id=":J2_0" function="internal">
        <lane id=":J2_0_0" index="0" speed="13.89" length="21.08" shape="128.99,11.51 128.63,32.58"/>
    </edge>
    <edge id=":J2_1" function="internal">
        <lane id=":J2_1_0" index="0" speed="9.32" length="5.29" shape="128.99,11.51 128.22,16.75"/>
    </edge>
    <edge id=":J2_2" function="internal">
        <lane id=":J2_2_0" index="0" speed="3.65" length="1.44" shape="128.99,11.51 128.19,12.71"/>
    </edge>
    <edge id=":J2_9" function="internal">
        <lane id=":J2_9_0" index="0" speed="9.32" length="14.25" shape="128.22,16.75 125.93,20.50 122.10,22.76 116.74,23.53"/>
    </edge>
    <edge id=":J2_10" function="internal">
        <lane id=":J2_10_0" index="0" speed="3.65" length="3.23" shape="128.19,12.71 127.39,13.11 126.59,12.71 125.79,11.51"/>
    </edge>
    <edge id=":J2_3" function="internal">
        <lane id=":J2_3_0" index="0" speed="8.07" length="14.40" shape="116.73,20.33 120.69,19.76 123.52,18.10 125.22,15.35 125.79,11.51"/>
    </edge>
    <edge id=":J2_4" function="internal">
        <lane id=":J2_4_0" index="0" speed="9.20" length="19.65" shape="116.73,20.33 122.09,21.07 125.86,23.36 128.04,27.20 128.63,32.58"/>
    </edge>
    <edge id=":J2_5" function="internal">
        <lane id=":J2_5_0" index="0" speed="3.65" length="4.67" shape="116.73,20.33 117.93,21.12 118.34,21.92 117.94,22.72 116.74,23.53"/>
    </edge>
    <edge id=":J2_6" function="internal">
        <lane id=":J2_6_0" index="0" speed="7.93" length="14.34" shape="125.43,32.47 125.00,28.54 123.41,25.74 120.66,24.07 116.74,23.53"/>
    </edge>
    <edge id=":J2_7" function="internal">
        <lane id=":J2_7_0" index="0" speed="13.89" length="20.97" shape="125.43,32.47 125.79,11.51"/>
    </edge>
    <edge id=":J2_8" function="internal">
        <lane id=":J2_8_0" index="0" speed="3.65" length="1.44" shape="125.43,32.47 126.27,31.30"/>
    </edge>
    <edge id=":J2_11" function="internal">
        <lane id=":J2_11_0" index="0" speed="3.65" length="3.23" shape="126.27,31.30 127.08,30.93 127.87,31.35 128.63,32.58"/>
    </edge>
    <edge id=":J3_0" function="internal">
        <lane id=":J3_0_0" index="0" speed="13.89" length="20.07" shape="-30.25,32.95 -30.26,27.00 -30.35,22.92 -30.61,18.84 -31.12,12.92"/>
    </edge>
    <edge id=":J3_1" function="internal">
        <lane id=":J3_1_0" index="0" speed="9.26" length="4.94" shape="-30.25,32.95 -29.55,28.06"/>
    </edge>
    <edge id=":J3_2" function="internal">
        <lane id=":J3_2_0" index="0" speed="3.65" length="1.44" shape="-30.25,32.95 -29.45,31.75"/>
    </edge>
    <edge id=":J3_9" function="internal">
        <lane id=":J3_9_0" index="0" speed="9.26" length="14.34" shape="-29.55,28.06 -29.50,27.72 -27.26,23.98 -23.53,21.72 -18.31,20.95"/>
    </edge>
    <edge id=":J3_10" function="internal">
        <lane id=":J3_10_0" index="0" speed="3.65" length="3.23" shape="-29.45,31.75 -28.65,31.35 -27.85,31.75 -27.05,32.95"/>
    </edge>
    <edge id=":J3_3" function="internal">
        <lane id=":J3_3_0" index="0" speed="8.00" length="14.14" shape="-18.29,24.15 -22.12,24.72 -24.86,26.37 -26.50,29.12 -27.05,32.95"/>
    </edge>
    <edge id=":J3_4" function="internal">
        <lane id=":J3_4_0" index="0" speed="9.50" length="19.10" shape="-18.29,24.15 -23.53,23.47 -27.41,21.37 -29.94,17.85 -31.12,12.92"/>
    </edge>
    <edge id=":J3_5" function="internal">
        <lane id=":J3_5_0" index="0" speed="3.65" length="4.67" shape="-18.29,24.15 -19.49,23.36 -19.90,22.56 -19.50,21.76 -18.31,20.95"/>
    </edge>
    <edge id=":J3_6" function="internal">
        <lane id=":J3_6_0" index="0" speed="8.27" length="14.25" shape="-27.93,12.63 -27.05,16.29 -25.15,18.89 -22.24,20.45 -18.31,20.95"/>
    </edge>
    <edge id=":J3_7" function="internal">
        <lane id=":J3_7_0" index="0" speed="13.89" length="20.35" shape="-27.93,12.63 -27.42,18.60 -27.16,22.78 -27.06,26.96 -27.05,32.95"/>
    </edge>
    <edge id=":J3_8" function="internal">
        <lane id=":J3_8_0" index="0" speed="3.65" length="1.44" shape="-27.93,12.63 -28.62,13.90"/>
    </edge>
    <edge id=":J3_11" function="internal">
        <lane id=":J3_11_0" index="0" speed="3.65" length="3.23" shape="-28.62,13.90 -29.38,14.37 -30.22,14.04 -31.12,12.92"/>
    </edge>
    <edge id=":J4_0" function="internal">
        <lane id=":J4_0_0" index="0" speed="6.07" length="7.87" shape="125.79,-43.80 125.48,-45.94 124.56,-47.45 123.03,-48.34 120.88,-48.59"/>
    </edge>
    <edge id=":J4_1" function="internal">
        <lane id=":J4_1_0" index="0" speed="3.65" length="1.30" shape="125.79,-43.80 126.51,-44.88"/>
    </edge>
    <edge id=":J4_4" function="internal">
        <lane id=":J4_4_0" index="0" speed="3.65" length="3.37" shape="126.51,-44.88 126.59,-45.00 127.39,-45.40 128.19,-45.00 128.99,-43.80"/>
    </edge>
    <edge id=":J4_2" function="internal">
        <lane id=":J4_2_0" index="0" speed="7.65" length="13.11" shape="120.81,-51.79 124.39,-51.36 126.95,-49.89 128.48,-47.36 128.99,-43.80"/>
    </edge>
    <edge id=":J4_3" function="internal">
        <lane id=":J4_3_0" index="0" speed="3.65" length="1.44" shape="120.81,-51.79 122.03,-51.02"/>
    </edge>
    <edge id=":J4_5" function="internal">
        <lane id=":J4_5_0" index="0" speed="3.65" length="3.23" shape="122.03,-51.02 122.45,-50.23 122.06,-49.42 120.88,-48.59"/>
    </edge>
    <edge id=":J5_0" function="internal">
        <lane id=":J5_0_0" index="0" speed="7.65" length="13.53" shape="-35.81,-39.76 -35.60,-43.49 -34.24,-46.19 -31.71,-47.85 -28.02,-48.46"/>
    </edge>
    <edge id=":J5_1" function="internal">
        <lane id=":J5_1_0" index="0" speed="3.65" length="1.44" shape="-35.81,-39.76 -35.12,-41.02"/>
    </edge>
    <edge id=":J5_4" function="internal">
        <lane id=":J5_4_0" index="0" speed="3.65" length="3.23" shape="-35.12,-41.02 -34.36,-41.49 -33.52,-41.16 -32.62,-40.04"/>
    </edge>
    <edge id=":J5_2" function="internal">
        <lane id=":J5_2_0" index="0" speed="6.07" length="8.12" shape="-27.95,-45.26 -30.16,-44.89 -31.68,-43.90 -32.50,-42.28 -32.62,-40.04"/>
    </edge>
    <edge id=":J5_3" function="internal">
        <lane id=":J5_3_0" index="0" speed="3.65" length="1.30" shape="-27.95,-45.26 -29.05,-45.96"/>
    </edge>
    <edge id=":J5_5" function="internal">
        <lane id=":J5_5_0" index="0" speed="3.65" length="3.37" shape="-29.05,-45.96 -29.16,-46.04 -29.58,-46.83 -29.20,-47.64 -28.02,-48.46"/>
    </edge>
    <edge id=":J6_0" function="internal">
        <lane id=":J6_0_0" index="0" speed="7.66" length="12.79" shape="127.18,120.78 126.69,124.25 125.20,126.74 122.73,128.25 119.27,128.78"/>
    </edge>
    <edge id=":J6_1" function="internal">
        <lane id=":J6_1_0" index="0" speed="3.65" length="1.44" shape="127.18,120.78 126.38,121.98"/>
    </edge>
    <edge id=":J6_4" function="internal">
        <lane id=":J6_4_0" index="0" speed="3.65" length="3.23" shape="126.38,121.98 125.58,122.38 124.78,121.98 123.98,120.78"/>
    </edge>
    <edge id=":J6_2" function="internal">
        <lane id=":J6_2_0" index="0" speed="6.08" length="7.68" shape="119.24,125.58 121.31,125.26 122.79,124.36 123.68,122.86 123.98,120.78"/>
    </edge>
    <edge id=":J6_3" function="internal">
        <lane id=":J6_3_0" index="0" speed="3.65" length="1.30" shape="119.24,125.58 120.33,126.29"/>
    </edge>
    <edge id=":J6_5" function="internal">
        <lane id=":J6_5_0" index="0" speed="3.65" length="3.37" shape="120.33,126.29 120.45,126.37 120.85,127.17 120.46,127.97 119.27,128.78"/>
    </edge>
    <edge id=":J7_0" function="internal">
        <lane id=":J7_0_0" index="0" speed="7.65" length="13.20" shape="-23.11,130.45 -26.72,129.98 -29.27,128.46 -30.76,125.90 -31.21,122.29"/>
    </edge>
    <edge id=":J7_1" function="internal">
        <lane id=":J7_1_0" index="0" speed="3.65" length="1.44" shape="-23.11,130.45 -24.32,129.67"/>
    </edge>
    <edge id=":J7_4" function="internal">
        <lane id=":J7_4_0" index="0" speed="3.65" length="3.23" shape="-24.32,129.67 -24.73,128.87 -24.34,128.07 -23.15,127.25"/>
    </edge>
    <edge id=":J7_2" function="internal">
        <lane id=":J7_2_0" index="0" speed="6.07" length="7.92" shape="-28.01,122.36 -27.74,124.52 -26.84,126.06 -25.31,126.97 -23.15,127.25"/>
    </edge>
    <edge id=":J7_3" function="internal">
        <lane id=":J7_3_0" index="0" speed="3.65" length="1.30" shape="-28.01,122.36 -28.75,123.42"/>
    </edge>
    <edge id=":J7_5" function="internal">
        <lane id=":J7_5_0" index="0" speed="3.65" length="3.37" shape="-28.75,123.42 -28.83,123.54 -29.64,123.92 -30.43,123.51 -31.21,122.29"/>
    </edge>
    <edge id=":J8_0" function="internal">
        <lane id=":J8_0_0" index="0" allow="ship" speed="7.98" length="2.29" shape="-8.79,173.71 -9.47,173.70 -9.93,173.64 -10.38,173.48 -10.98,173.19"/>
    </edge>
    <edge id=":J8_1" function="internal">
        <lane id=":J8_1_0" index="0" allow="ship" speed="13.89" length="0.76" shape="-9.54,170.33 -9.33,170.43 -9.18,170.48 -9.03,170.50 -8.80,170.51"/>
    </edge>
    <edge id=":J9_0" function="internal">
        <lane id=":J9_0_0" index="0" allow="ship" speed="6.29" length="5.09" shape="-74.51,140.91 -75.61,140.18 -76.41,139.26 -76.92,138.14 -77.13,136.84"/>
    </edge>
    <edge id=":J9_1" function="internal">
        <lane id=":J9_1_0" index="0" allow="ship" speed="4.02" length="1.70" shape="-73.93,136.70 -73.86,137.14 -73.69,137.51 -73.42,137.82 -73.06,138.06"/>
    </edge>

    <edge id="-E0" from="J1" to="J0" priority="-1">
        <lane id="-E0_0" index="0" speed="13.89" length="133.40" shape="115.18,79.68 -18.22,80.00"/>
        <lane id="-E0_1" index="1" speed="13.89" length="133.40" shape="115.17,76.48 -18.23,76.80"/>
    </edge>
    <edge id="-E1" from="J2" to="J1" priority="-1">
        <lane id="-E1_0" index="0" speed="13.89" length="32.19" shape="131.82,32.69 130.72,64.86"/>
        <lane id="-E1_1" index="1" speed="13.89" length="32.19" shape="128.63,32.58 127.53,64.75"/>
    </edge>
    <edge id="-E10" from="J9" to="J8" priority="-1">
        <lane id="-E10_0" index="0" allow="ship" speed="13.89" length="71.25" shape="-73.06,138.06 -9.54,170.33"/>
    </edge>
    <edge id="-E11" from="J10" to="J8" priority="-1">
        <lane id="-E11_0" index="0" allow="ship" speed="13.89" length="119.27" shape="110.48,173.18 -8.79,173.71"/>
    </edge>
    <edge id="-E12" from="J11" to="J10" priority="-1">
        <lane id="-E12_0" index="0" allow="ship" speed="13.89" length="69.67" shape="168.22,129.14 113.42,172.16"/>
    </edge>
    <edge id="-E13" from="J12" to="J11" priority="-1">
        <lane id="-E13_0" index="0" allow="ship" speed="13.89" length="157.57" shape="174.23,-32.02 170.06,125.49"/>
    </edge>
    <edge id="-E14" from="J13" to="J12" priority="-1">
        <lane id="-E14_0" index="0" allow="ship" speed="13.89" length="68.48" shape="122.76,-82.49 172.72,-35.65"/>
    </edge>
    <edge id="-E16" from="J15" to="J14" priority="-1">
        <lane id="-E16_0" index="0" allow="ship" speed="13.89" length="70.66" shape="-82.55,-36.99 -27.25,-80.97"/>
    </edge>
    <edge id="-E17" from="J9" to="J15" priority="-1">
        <lane id="-E17_0" index="0" allow="ship" speed="13.89" length="170.02" shape="-77.13,136.84 -84.36,-33.03"/>
    </edge>
    <edge id="-E2" from="J3" to="J2" priority="-1">
        <lane id="-E2_0" index="0" speed="13.89" length="135.04" shape="-18.32,17.75 116.71,17.13"/>
        <lane id="-E2_1" index="1" speed="13.89" length="135.04" shape="-18.31,20.95 116.73,20.33"/>
    </edge>
    <edge id="-E3" from="J0" to="J3" priority="-1">
        <lane id="-E3_0" index="0" speed="13.89" length="31.85" shape="-33.45,64.81 -33.45,32.95"/>
        <lane id="-E3_1" index="1" speed="13.89" length="31.85" shape="-30.25,64.81 -30.25,32.95"/>
    </edge>
    <edge id="-E4" from="J4" to="J2" priority="-1">
        <lane id="-E4_0" index="0" speed="13.89" length="55.30" shape="132.19,-43.80 132.19,11.51"/>
        <lane id="-E4_1" index="1" speed="13.89" length="55.30" shape="128.99,-43.80 128.99,11.51"/>
    </edge>
    <edge id="-E5" from="J5" to="J4" priority="-1">
        <lane id="-E5_0" index="0" speed="13.89" length="148.87" shape="-28.09,-51.66 120.74,-54.99"/>
        <lane id="-E5_1" index="1" speed="13.89" length="148.87" shape="-28.02,-48.46 120.81,-51.79"/>
    </edge>
    <edge id="-E6" from="J3" to="J5" priority="-1">
        <lane id="-E6_0" index="0" speed="13.89" length="52.88" shape="-34.31,13.20 -38.99,-39.47"/>
        <lane id="-E6_1" index="1" speed="13.89" length="52.88" shape="-31.12,12.92 -35.81,-39.76"/>
    </edge>
    <edge id="-E7" from="J6" to="J1" priority="-1">
        <lane id="-E7_0" index="0" speed="13.89" length="35.51" shape="120.78,120.78 120.78,85.27"/>
        <lane id="-E7_1" index="1" speed="13.89" length="35.51" shape="123.98,120.78 123.98,85.27"/>
    </edge>
    <edge id="-E8" from="J7" to="J6" priority="-1">
        <lane id="-E8_0" index="0" speed="13.89" length="142.40" shape="-23.19,124.05 119.20,122.38"/>
        <lane id="-E8_1" index="1" speed="13.89" length="142.40" shape="-23.15,127.25 119.24,125.58"/>
    </edge>
    <edge id="-E9" from="J0" to="J7" priority="-1">
        <lane id="-E9_0" index="0" speed="13.89" length="36.86" shape="-24.06,85.57 -24.81,122.42"/>
        <lane id="-E9_1" index="1" speed="13.89" length="36.86" shape="-27.26,85.51 -28.01,122.36"/>
    </edge>
    <edge id="E0" from="J0" to="J1" priority="-1">
        <lane id="E0_0" index="0" speed="13.89" length="133.40" shape="-18.25,70.40 115.15,70.08"/>
        <lane id="E0_1" index="1" speed="13.89" length="133.40" shape="-18.24,73.60 115.16,73.28"/>
    </edge>
    <edge id="E1" from="J1" to="J2" priority="-1">
        <lane id="E1_0" index="0" speed="13.89" length="32.19" shape="121.13,64.53 122.23,32.36"/>
        <lane id="E1_1" index="1" speed="13.89" length="32.19" shape="124.33,64.64 125.43,32.47"/>
    </edge>
    <edge id="E10" from="J8" to="J9" priority="-1">
        <lane id="E10_0" index="0" allow="ship" speed="13.89" length="71.25" shape="-10.98,173.19 -74.51,140.91"/>
    </edge>
    <edge id="E11" from="J8" to="J10" priority="-1">
        <lane id="E11_0" index="0" allow="ship" speed="13.89" length="119.27" shape="-8.80,170.51 110.46,169.98"/>
    </edge>
    <edge id="E12" from="J10" to="J11" priority="-1">
        <lane id="E12_0" index="0" allow="ship" speed="13.89" length="69.67" shape="111.45,169.64 166.25,126.62"/>
    </edge>
    <edge id="E13" from="J11" to="J12" priority="-1">
        <lane id="E13_0" index="0" allow="ship" speed="13.89" length="157.57" shape="166.86,125.40 171.03,-32.11"/>
    </edge>
    <edge id="E14" from="J12" to="J13" priority="-1">
        <lane id="E14_0" index="0" allow="ship" speed="13.89" length="68.48" shape="170.53,-33.32 120.58,-80.15"/>
    </edge>
    <edge id="E16" from="J14" to="J15" priority="-1" spreadType="roadCenter">
        <lane id="E16_0" index="0" allow="ship" speed="13.89" length="70.66" shape="-25.25,-78.47 -80.56,-34.48"/>
    </edge>
    <edge id="E17" from="J15" to="J9" priority="-1">
        <lane id="E17_0" index="0" allow="ship" speed="13.89" length="170.02" shape="-81.16,-33.16 -73.93,136.70"/>
    </edge>
    <edge id="E2" from="J2" to="J3" priority="-1">
        <lane id="E2_0" index="0" speed="13.89" length="135.04" shape="116.76,26.73 -18.28,27.35"/>
        <lane id="E2_1" index="1" speed="13.89" length="135.04" shape="116.74,23.53 -18.29,24.15"/>
    </edge>
    <edge id="E3" from="J3" to="J0" priority="-1">
        <lane id="E3_0" index="0" speed="13.89" length="31.85" shape="-23.85,32.95 -23.85,64.81"/>
        <lane id="E3_1" index="1" speed="13.89" length="31.85" shape="-27.05,32.95 -27.05,64.81"/>
    </edge>
    <edge id="E4" from="J2" to="J4" priority="-1">
        <lane id="E4_0" index="0" speed="13.89" length="55.30" shape="122.59,11.51 122.59,-43.80"/>
        <lane id="E4_1" index="1" speed="13.89" length="55.30" shape="125.79,11.51 125.79,-43.80"/>
    </edge>
    <edge id="E5" from="J4" to="J5" priority="-1">
        <lane id="E5_0" index="0" speed="13.89" length="148.87" shape="120.95,-45.39 -27.87,-42.06"/>
        <lane id="E5_1" index="1" speed="13.89" length="148.87" shape="120.88,-48.59 -27.95,-45.26"/>
    </edge>
    <edge id="E6" from="J5" to="J3" priority="-1">
        <lane id="E6_0" index="0" speed="13.89" length="52.88" shape="-29.43,-40.32 -24.74,12.35"/>
        <lane id="E6_1" index="1" speed="13.89" length="52.88" shape="-32.62,-40.04 -27.93,12.63"/>
    </edge>
    <edge id="E7" from="J1" to="J6" priority="-1">
        <lane id="E7_0" index="0" speed="13.89" length="35.51" shape="130.38,85.27 130.38,120.78"/>
        <lane id="E7_1" index="1" speed="13.89" length="35.51" shape="127.18,85.27 127.18,120.78"/>
    </edge>
    <edge id="E8" from="J6" to="J7" priority="-1">
        <lane id="E8_0" index="0" speed="13.89" length="142.40" shape="119.31,131.98 -23.08,133.65"/>
        <lane id="E8_1" index="1" speed="13.89" length="142.40" shape="119.27,128.78 -23.11,130.45"/>
    </edge>
    <edge id="E9" from="J7" to="J0" priority="-1">
        <lane id="E9_0" index="0" speed="13.89" length="36.86" shape="-34.40,122.23 -33.66,85.38"/>
        <lane id="E9_1" index="1" speed="13.89" length="36.86" shape="-31.21,122.29 -30.46,85.44"/>
    </edge>

    <junction id="J0" type="priority" x="-28.65" y="75.22" incLanes="-E0_0 -E0_1 E3_0 E3_1 E9_0 E9_1" intLanes=":J0_0_0 :J0_1_0 :J0_2_0 :J0_3_0 :J0_4_0 :J0_9_0 :J0_6_0 :J0_10_0 :J0_11_0" shape="-18.22,81.60 -18.25,68.80 -20.47,68.36 -21.25,67.80 -21.81,67.03 -22.14,66.03 -22.25,64.81 -35.05,64.81 -35.26,85.34 -22.46,85.60 -21.95,83.38 -21.36,82.60 -20.54,82.05 -19.49,81.71">
        <request index="0" response="000010000" foes="100010000" cont="0"/>
        <request index="1" response="011010000" foes="011110000" cont="0"/>
        <request index="2" response="010001000" foes="010001000" cont="0"/>
        <request index="3" response="000000000" foes="010000100" cont="0"/>
        <request index="4" response="000000000" foes="110000011" cont="0"/>
        <request index="5" response="001000010" foes="001000010" cont="1"/>
        <request index="6" response="000000000" foes="000100010" cont="0"/>
        <request index="7" response="000011000" foes="000011110" cont="1"/>
        <request index="8" response="000010001" foes="000010001" cont="1"/>
    </junction>
    <junction id="J1" type="priority" x="125.58" y="74.86" incLanes="-E7_0 -E7_1 -E1_0 -E1_1 E0_0 E0_1" intLanes=":J1_0_0 :J1_1_0 :J1_9_0 :J1_3_0 :J1_10_0 :J1_11_0 :J1_6_0 :J1_7_0 :J1_8_0" shape="119.18,85.27 131.98,85.27 132.32,64.91 119.53,64.48 118.98,66.70 118.37,67.48 117.52,68.03 116.45,68.37 115.15,68.48 115.18,81.28 117.40,81.72 118.18,82.28 118.74,83.05 119.07,84.05">
        <request index="0" response="000000000" foes="100010000" cont="0"/>
        <request index="1" response="000000000" foes="011110000" cont="0"/>
        <request index="2" response="010001000" foes="010001000" cont="1"/>
        <request index="3" response="000000000" foes="010000100" cont="0"/>
        <request index="4" response="000000011" foes="110000011" cont="1"/>
        <request index="5" response="001000010" foes="001000010" cont="1"/>
        <request index="6" response="000000010" foes="000100010" cont="0"/>
        <request index="7" response="000011010" foes="000011110" cont="0"/>
        <request index="8" response="000010001" foes="000010001" cont="0"/>
    </junction>
    <junction id="J10" type="priority" x="111.57" y="171.58" incLanes="-E12_0 E11_0" intLanes=":J10_0_0 :J10_1_0" shape="114.41,173.42 110.46,168.38 110.49,174.78 112.06,174.71 112.61,174.58 113.13,174.34 113.70,173.96">
        <request index="0" response="00" foes="00" cont="0"/>
        <request index="1" response="00" foes="00" cont="0"/>
    </junction>
    <junction id="J11" type="priority" x="168.42" y="126.95" incLanes="-E13_0 E12_0" intLanes=":J11_0_0 :J11_1_0" shape="171.66,125.53 165.26,125.36 169.21,130.40 170.54,129.03 171.01,128.25 171.35,127.41 171.57,126.50">
        <request index="0" response="00" foes="00" cont="0"/>
        <request index="1" response="00" foes="00" cont="0"/>
    </junction>
    <junction id="J12" type="priority" x="172.67" y="-33.50" incLanes="-E14_0 E13_0" intLanes=":J12_0_0 :J12_1_0" shape="173.81,-36.82 169.43,-32.15 175.83,-31.98 175.64,-33.79 175.36,-34.62 174.97,-35.41 174.45,-36.14">
        <request index="0" response="00" foes="00" cont="0"/>
        <request index="1" response="00" foes="00" cont="0"/>
    </junction>
    <junction id="J13" type="unregulated" x="121.67" y="-81.32" incLanes="E14_0" intLanes=":J13_0_0" shape="121.67,-81.32 119.48,-78.99 121.67,-81.32"/>
    <junction id="J14" type="unregulated" x="-26.25" y="-79.72" incLanes="-E16_0" intLanes=":J14_0_0" shape="-26.25,-79.72 -28.24,-82.22 -26.25,-79.72"/>
    <junction id="J15" type="priority" x="-82.83" y="-34.72" incLanes="-E17_0 E16_0" intLanes=":J15_0_0 :J15_1_0" shape="-85.96,-32.96 -79.56,-33.23 -83.55,-38.24 -84.95,-36.75 -85.42,-35.90 -85.75,-34.99 -85.93,-34.01">
        <request index="0" response="00" foes="00" cont="0"/>
        <request index="1" response="00" foes="00" cont="0"/>
    </junction>
    <junction id="J2" type="priority" x="127.39" y="21.88" incLanes="-E4_0 -E4_1 -E2_0 -E2_1 E1_0 E1_1" intLanes=":J2_0_0 :J2_9_0 :J2_10_0 :J2_3_0 :J2_4_0 :J2_5_0 :J2_6_0 :J2_7_0 :J2_11_0" shape="133.79,11.51 120.99,11.51 120.51,13.73 119.92,14.51 119.09,15.07 118.02,15.41 116.71,15.53 116.77,28.33 118.97,28.76 119.73,29.31 120.26,30.09 120.56,31.09 120.63,32.31 133.42,32.75">
        <request index="0" response="000000000" foes="100010000" cont="0"/>
        <request index="1" response="011000000" foes="011110000" cont="1"/>
        <request index="2" response="010001000" foes="010001000" cont="1"/>
        <request index="3" response="010000000" foes="010000100" cont="0"/>
        <request index="4" response="010000011" foes="110000011" cont="0"/>
        <request index="5" response="001000010" foes="001000010" cont="0"/>
        <request index="6" response="000000000" foes="000100010" cont="0"/>
        <request index="7" response="000000000" foes="000011110" cont="0"/>