<?xml version="1.0" encoding="UTF-8"?>
  
<!--emissionClass="Energy/unknown"LCV_I_G_EU6c-->
<routes>    
	<vType id="moto" vClass="motorcycle" emissionClass="Energy/unknown" accel="1.0" decel="1.0" lenght="12" maxSpeed="100.0" sigma="0.0" minGap="2.5" color="1,1,1">     
           
       <!-- <param key="has.battery.device" value="true"/>
        <param key="maximumBatteryCapacity" value="2000"/>
        <param key="maximumPower" value="1000"/>
        <param key="vehicleMass" value="150"/>
        <param key="frontSurfaceArea" value="1"/>
        <param key="airDragCoefficient" value="0.6"/>
        <param key="internalMomentOfInertia" value="0.01"/>
        <param key="radialDragCoefficient" value="0.5"/>
        <param key="rollDragCoefficient" value="0.01"/>
        <param key="constantPowerIntake" value="100"/>
        <param key="propulsionEfficiency" value="0.9"/>
        <param key="recuperationEfficiency" value="0.9"/>
        <param key="recuperationEfficiencyByDecel" value="0."/>
        <param key="stoppingTreshold" value="0.1"/> -->
    
    </vType>

    <vType color="1,1,1" minGap="2.5" sigma="0.0" maxSpeed="15.0" lenght="1" decel="2.0" accel="1.0" emissionClass="Energy/unknown" vClass="ship" id="ship"/>
    <!--<vType color="255,0,0" minGap="2.5" sigma="0.0" maxSpeed="15.0" lenght="1" decel="1.0" accel="1.0" emissionClass="Energy/unknown" vClass="bus" id="bus"/>
        <param key="has.battery.device" value="true"/>
        <param key="maximumBatteryCapacity" value="2000"/>
        <param key="maximumPower" value="1000"/>
        <param key="vehicleMass" value="150"/>
        <param key="frontSurfaceArea" value="1"/>
        <param key="airDragCoefficient" value="0.6"/>
        <param key="internalMomentOfInertia" value="0.01"/>
        <param key="radialDragCoefficient" value="0.5"/>
        <param key="rollDragCoefficient" value="0.01"/>
        <param key="constantPowerIntake" value="100"/>
        <param key="propulsionEfficiency" value="0.9"/>
        <param key="recuperationEfficiency" value="0.9"/>
        <param key="recuperationEfficiencyByDecel" value="1"/>
        <param key="stoppingTreshold" value="0.1"/> -->

    <vType id="bus" accel="1.0" decel="1.0" length="12" maxSpeed="100.0" sigma="0.0" minGap="2.5" color="1,1,1" vClass="bus" emissionClass="Energy/unknown">
        <param key="has.battery.device" value="true"/>
        <param key="maximumBatteryCapacity" value="2000"/>
        <param key="maximumPower" value="1000"/>
        <param key="vehicleMass" value="10000"/>
        <param key="frontSurfaceArea" value="5"/>
        <param key="airDragCoefficient" value="0.6"/>
        <param key="internalMomentOfInertia" value="0.01"/>
        <param key="radialDragCoefficient" value="0.5"/>
        <param key="rollDragCoefficient" value="0.01"/>
        <param key="constantPowerIntake" value="100"/>
        <param key="propulsionEfficiency" value="0.9"/>
        <param key="recuperationEfficiency" value="0.9"/>
        <param key="stoppingTreshold" value="0.1"/>
    </vType>


</routes>
